59
	Energy:     285.1980483
C	-3.01219	 0.56162	-1.79183
C	-3.65384	 1.59204	-0.77891
H	-4.62493	 1.36783	-0.34812
H	-3.91344	 2.54854	-1.28508
H	-2.96690	 1.85730	 0.04770
C	-4.05441	 0.37528	-2.91616
H	-5.02614	 0.03731	-2.52992
H	-3.68329	-0.26874	-3.72876
H	-4.30235	 1.34817	-3.39556
C	-1.90514	 1.47703	-2.43160
H	-2.32281	 2.45877	-2.75011
H	-1.51915	 1.15215	-3.39403
H	-1.08170	 1.73570	-1.74695
C	-2.46016	-0.87949	-1.06476
C	 2.36614	 1.67628	 2.06981
C	 3.71728	 2.41553	 2.00924
At	 3.93921	 3.80520	 3.82760
At	 5.53984	 0.97428	 2.09189
C	-3.72065	-1.80954	-0.39471
C	-4.68683	-0.97218	 0.48308
H	-4.14774	-0.33930	 1.21788
H	-5.38107	-1.61089	 1.07455
H	-5.41326	-0.43158	-0.14599
C	-4.67265	-2.55512	-1.39221
H	-5.11430	-1.95342	-2.18839
H	-5.53984	-2.99150	-0.84761
H	-4.25339	-3.44957	-1.84964
C	-3.28121	-2.95388	 0.58488
H	-2.69900	-2.63146	 1.46613
H	-2.81497	-3.80520	 0.08834
H	-4.16818	-3.45450	 1.03345
C	-1.41017	-1.84417	-2.04588
C	-2.05698	-2.70485	-3.16213
H	-2.52869	-3.61667	-2.78592
H	-1.27357	-3.14815	-3.81922
H	-2.72533	-2.13964	-3.82760
C	-0.55453	-2.86703	-1.21633
H	-1.09357	-3.74228	-0.86196
H	-0.01395	-2.43567	-0.36510
H	 0.22593	-3.34915	-1.84463
C	-0.31536	-1.03549	-2.83600
H	-0.72181	-0.60579	-3.76212
H	 0.45613	-1.70734	-3.27193
H	 0.27682	-0.29802	-2.26308
At	 3.97565	 3.76036	 0.13244
C	-1.59877	-0.32687	 0.19920
C	-0.46863	 0.60408	 0.81544
H	-0.92651	-0.14351	-0.59830
H	-1.38529	-1.21666	 0.79567
C	 0.93655	-0.10030	 0.82012
H	-0.71223	 0.83982	 1.87420
H	-0.41786	 1.60522	 0.31891
C	 2.17698	 0.79087	 0.84085
H	 1.08581	-0.62854	-0.13885
H	 0.96192	-0.86798	 1.62474
H	 2.15593	 1.41990	-0.07334
H	 3.04356	 0.10047	 0.75908
H	 1.53962	 2.41591	 2.11328
H	 2.34490	 1.05335	 2.98896

